Version 4
SHEET 1 1304 680
WIRE -512 -800 -560 -800
WIRE -560 -704 -560 -800
SYMBOL nmos -608 -704 R0
SYMATTR InstName M3
SYMBOL nmos -368 -704 R90
SYMATTR InstName M4
SYMBOL nmos -512 -400 R180
SYMATTR InstName M5
SYMBOL nmos -464 -432 R270
SYMATTR InstName M6
SYMBOL nmos -224 -656 M270
SYMATTR InstName M7
SYMBOL nmos -208 -512 M0
SYMATTR InstName M8
SYMBOL nmos -160 -512 M90
SYMATTR InstName M9
SYMBOL nmos -160 -624 M180
SYMATTR InstName M10
SYMBOL pnp 32 -736 R0
SYMATTR InstName Q2
SYMBOL pnp 352 -736 M0
SYMATTR InstName Q3
SYMBOL pnp 272 -592 M90
SYMATTR InstName Q4
SYMBOL pnp 256 -336 M180
SYMATTR InstName Q5
SYMBOL pnp 352 -800 M270
SYMATTR InstName Q6
SYMBOL pnp 128 -912 R90
SYMATTR InstName Q7
SYMBOL pnp 112 -496 R180
SYMATTR InstName Q8
SYMBOL pnp 32 -352 R270
SYMATTR InstName Q9
SYMBOL e2 -464 -880 R0
SYMATTR InstName E1
